ACEM-pdb1f94-A-ASN-53:MIND-pdb1f94-A-TRP-27
     RDKit          3D

 28 28  0  0  0  0  0  0  0  0999 V2000
    3.1654   -1.4777   -3.4554 C   0  0  0  0  0  0  0  0  0  0  0  0
    2.3275   -1.2418   -3.0281 H   0  0  0  0  0  0  0  0  0  0  0  0
    3.0160   -2.2797   -3.9797 H   0  0  0  0  0  0  0  0  0  0  0  0
    3.4678   -0.6685   -4.1202 H   0  0  0  0  0  0  0  0  0  0  0  0
    4.2020   -1.7707   -2.3860 C   0  0  0  0  0  0  0  0  0  0  0  0
    4.6403   -3.0092   -2.3645 N   0  0  0  0  0  0  0  0  0  0  0  0
    5.2427   -3.2415   -1.7968 H   0  0  0  0  0  0  0  0  0  0  0  0
    4.3255   -3.5860   -2.9186 H   0  0  0  0  0  0  0  0  0  0  0  0
    4.6016   -0.8942   -1.6295 O   0  0  0  0  0  0  0  0  0  0  0  0
    2.5107    1.0076   -0.0020 C   0  0  0  0  0  0  0  0  0  0  0  0
    3.1005    0.2374   -0.0327 H   0  0  0  0  0  0  0  0  0  0  0  0
    2.6343    1.4095    0.8721 H   0  0  0  0  0  0  0  0  0  0  0  0
    2.9123    1.7214   -0.7212 H   0  0  0  0  0  0  0  0  0  0  0  0
    1.1327    0.4657   -0.0106 C   0  0  0  0  0  0  0  0  0  0  0  0
   -0.0601    1.1694    0.0046 C   0  0  0  0  0  0  0  0  0  0  0  0
   -0.1264    2.0968    0.0125 H   0  0  0  0  0  0  0  0  0  0  0  0
   -1.1460    0.2963    0.0065 N   0  0  0  0  0  0  0  0  0  0  0  0
   -1.9741    0.5288    0.0082 H   0  0  0  0  0  0  0  0  0  0  0  0
   -0.6772   -1.0033    0.0041 C   0  0  0  0  0  0  0  0  0  0  0  0
   -1.3781   -2.2081    0.0000 C   0  0  0  0  0  0  0  0  0  0  0  0
   -2.3069   -2.1901   -0.0198 H   0  0  0  0  0  0  0  0  0  0  0  0
   -0.7402   -3.4062    0.0242 C   0  0  0  0  0  0  0  0  0  0  0  0
   -1.1986   -4.2153    0.0532 H   0  0  0  0  0  0  0  0  0  0  0  0
    0.6743   -3.3346    0.0027 C   0  0  0  0  0  0  0  0  0  0  0  0
    1.1539   -4.1307   -0.0092 H   0  0  0  0  0  0  0  0  0  0  0  0
    1.3781   -2.1511    0.0000 C   0  0  0  0  0  0  0  0  0  0  0  0
    2.3082   -2.1807   -0.0007 H   0  0  0  0  0  0  0  0  0  0  0  0
    0.7505   -0.9280   -0.0047 C   0  0  0  0  0  0  0  0  0  0  0  0
  1  5  1  0
  5  6  1  0
  5  9  2  0
  1  2  1  0
  1  3  1  0
  1  4  1  0
  6  7  1  0
  6  8  1  0
 10 14  1  0
 14 15  2  0
 15 17  1  0
 17 19  1  0
 19 20  2  0
 20 22  1  0
 22 24  2  0
 24 26  1  0
 26 28  2  0
 28 14  1  0
 28 19  1  0
 10 11  1  0
 10 12  1  0
 10 13  1  0
 15 16  1  0
 17 18  1  0
 20 21  1  0
 22 23  1  0
 24 25  1  0
 26 27  1  0
M  END
>  <PDB_ID>  (1) 
pdb1f94

>  <RESIDUE_NAME>  (1) 
ASN   TRP

>  <FRAG_NAME>  (1) 
ACEM   MIND

>  <FRAG_ATOM_NUM>  (1) 
fragi: 9  fragj: 19

>  <atom.prop.CHAIN_ID>  (1) 
A A A A A A A A A Z Z Z Z Z Z Z Z Z Z Z Z Z Z Z Z Z Z Z

>  <atom.prop.IS_HEAVY_ATOM>  (1) 
1 0 0 0 1 1 0 0 1 1 0 0 0 1 1 0 1 0 1 1 0 1 0 1 0 1 0 1

>  <DIFUSE_FUNC_ATOM>  (1) 
n/a

>  <FINAL_SINGLE_POINT_ENERGY>  (1) 
0

>  <NONCOV_INTER_ENERGY_QM>  (1) 
0

$$$$
ACEM-pdb1c7k-A-ASN-31:MIND-pdb1c7k-A-TRP-129
     RDKit          3D

 28 28  0  0  0  0  0  0  0  0999 V2000
    5.3500    3.0135   -1.9637 C   0  0  0  0  0  0  0  0  0  0  0  0
    4.4807    3.4617   -1.8384 H   0  0  0  0  0  0  0  0  0  0  0  0
    5.4548    2.2411   -1.3598 H   0  0  0  0  0  0  0  0  0  0  0  0
    5.4149    2.6610   -2.9930 H   0  0  0  0  0  0  0  0  0  0  0  0
    6.4626    4.0178   -1.6682 C   0  0  0  0  0  0  0  0  0  0  0  0
    6.3315    4.8248   -0.6664 N   0  0  0  0  0  0  0  0  0  0  0  0
    5.4897    4.7653   -0.0951 H   0  0  0  0  0  0  0  0  0  0  0  0
    7.0266    5.4996   -0.4361 H   0  0  0  0  0  0  0  0  0  0  0  0
    7.4615    4.0431   -2.4253 O   0  0  0  0  0  0  0  0  0  0  0  0
    2.5640    0.9601    0.0083 C   0  0  0  0  0  0  0  0  0  0  0  0
    2.5562    1.8294   -0.4133 H   0  0  0  0  0  0  0  0  0  0  0  0
    3.1143    0.2940   -0.4249 H   0  0  0  0  0  0  0  0  0  0  0  0
    2.8840    1.0686    1.0446 H   0  0  0  0  0  0  0  0  0  0  0  0
    1.1321    0.4403    0.0054 C   0  0  0  0  0  0  0  0  0  0  0  0
   -0.0249    1.1655    0.0015 C   0  0  0  0  0  0  0  0  0  0  0  0
   -0.0810    2.1643    0.0051 H   0  0  0  0  0  0  0  0  0  0  0  0
   -1.1406    0.3262   -0.0076 N   0  0  0  0  0  0  0  0  0  0  0  0
   -2.0825    0.6177   -0.0165 H   0  0  0  0  0  0  0  0  0  0  0  0
   -0.6928   -0.9860   -0.0020 C   0  0  0  0  0  0  0  0  0  0  0  0
   -1.4227   -2.1506   -0.0000 C   0  0  0  0  0  0  0  0  0  0  0  0
   -2.4223   -2.1366    0.0019 H   0  0  0  0  0  0  0  0  0  0  0  0
   -0.7069   -3.3088    0.0009 C   0  0  0  0  0  0  0  0  0  0  0  0
   -1.1950   -4.1942   -0.0008 H   0  0  0  0  0  0  0  0  0  0  0  0
    0.6922   -3.3330    0.0033 C   0  0  0  0  0  0  0  0  0  0  0  0
    1.1720   -4.2040    0.0078 H   0  0  0  0  0  0  0  0  0  0  0  0
    1.4227   -2.1576   -0.0000 C   0  0  0  0  0  0  0  0  0  0  0  0
    2.4160   -2.1808   -0.0052 H   0  0  0  0  0  0  0  0  0  0  0  0
    0.7261   -0.9461    0.0026 C   0  0  0  0  0  0  0  0  0  0  0  0
  1  5  1  0
  5  6  1  0
  5  9  2  0
  1  2  1  0
  1  3  1  0
  1  4  1  0
  6  7  1  0
  6  8  1  0
 10 14  1  0
 14 15  2  0
 15 17  1  0
 17 19  1  0
 19 20  2  0
 20 22  1  0
 22 24  2  0
 24 26  1  0
 26 28  2  0
 28 14  1  0
 28 19  1  0
 10 11  1  0
 10 12  1  0
 10 13  1  0
 15 16  1  0
 17 18  1  0
 20 21  1  0
 22 23  1  0
 24 25  1  0
 26 27  1  0
M  END
>  <PDB_ID>  (2) 
pdb1c7k

>  <RESIDUE_NAME>  (2) 
ASN   TRP

>  <FRAG_NAME>  (2) 
ACEM   MIND

>  <FRAG_ATOM_NUM>  (2) 
fragi: 9  fragj: 19

>  <atom.prop.CHAIN_ID>  (2) 
A A A A A A A A A Z Z Z Z Z Z Z Z Z Z Z Z Z Z Z Z Z Z Z

>  <atom.prop.IS_HEAVY_ATOM>  (2) 
1 0 0 0 1 1 0 0 1 1 0 0 0 1 1 0 1 0 1 1 0 1 0 1 0 1 0 1

>  <DIFUSE_FUNC_ATOM>  (2) 
n/a

>  <FINAL_SINGLE_POINT_ENERGY>  (2) 
0

>  <NONCOV_INTER_ENERGY_QM>  (2) 
0

$$$$
ACEM-pdb1gqv-A-GLN-14:MIND-pdb1gqv-A-TRP-10
     RDKit          3D

 28 28  0  0  0  0  0  0  0  0999 V2000
   -0.8624   -1.0938   -3.7528 C   0  0  0  0  0  0  0  0  0  0  0  0
   -1.0722   -2.0351   -3.6552 H   0  0  0  0  0  0  0  0  0  0  0  0
   -0.0838   -0.9021   -3.2073 H   0  0  0  0  0  0  0  0  0  0  0  0
   -0.6329   -0.8813   -4.7969 H   0  0  0  0  0  0  0  0  0  0  0  0
   -2.0334   -0.2643   -3.2673 C   0  0  0  0  0  0  0  0  0  0  0  0
   -1.8704    1.0409   -3.1580 N   0  0  0  0  0  0  0  0  0  0  0  0
   -1.0957    1.3901   -3.2931 H   0  0  0  0  0  0  0  0  0  0  0  0
   -2.5375    1.5428   -2.9518 H   0  0  0  0  0  0  0  0  0  0  0  0
   -3.1439   -0.7978   -3.0768 O   0  0  0  0  0  0  0  0  0  0  0  0
    2.5135    1.0324    0.0049 C   0  0  0  0  0  0  0  0  0  0  0  0
    2.9242    0.8094    0.8554 H   0  0  0  0  0  0  0  0  0  0  0  0
    2.4442    1.9979   -0.0396 H   0  0  0  0  0  0  0  0  0  0  0  0
    3.1746    0.6976   -0.7944 H   0  0  0  0  0  0  0  0  0  0  0  0
    1.1214    0.4542   -0.0156 C   0  0  0  0  0  0  0  0  0  0  0  0
   -0.0413    1.1681    0.0019 C   0  0  0  0  0  0  0  0  0  0  0  0
   -0.0948    2.0965    0.0015 H   0  0  0  0  0  0  0  0  0  0  0  0
   -1.1245    0.3176    0.0206 N   0  0  0  0  0  0  0  0  0  0  0  0
   -1.9478    0.5642    0.0382 H   0  0  0  0  0  0  0  0  0  0  0  0
   -0.6849   -0.9909    0.0057 C   0  0  0  0  0  0  0  0  0  0  0  0
   -1.4218   -2.1832   -0.0000 C   0  0  0  0  0  0  0  0  0  0  0  0
   -2.3516   -2.1817    0.0114 H   0  0  0  0  0  0  0  0  0  0  0  0
   -0.7024   -3.3583   -0.0218 C   0  0  0  0  0  0  0  0  0  0  0  0
   -1.1580   -4.1684   -0.0553 H   0  0  0  0  0  0  0  0  0  0  0  0
    0.7040   -3.3613    0.0042 C   0  0  0  0  0  0  0  0  0  0  0  0
    1.1599   -4.1708    0.0244 H   0  0  0  0  0  0  0  0  0  0  0  0
    1.4218   -2.1711   -0.0000 C   0  0  0  0  0  0  0  0  0  0  0  0
    2.3516   -2.1838    0.0056 H   0  0  0  0  0  0  0  0  0  0  0  0
    0.7293   -0.9491   -0.0126 C   0  0  0  0  0  0  0  0  0  0  0  0
  1  5  1  0
  5  6  1  0
  5  9  2  0
  1  2  1  0
  1  3  1  0
  1  4  1  0
  6  7  1  0
  6  8  1  0
 10 14  1  0
 14 15  2  0
 15 17  1  0
 17 19  1  0
 19 20  2  0
 20 22  1  0
 22 24  2  0
 24 26  1  0
 26 28  2  0
 28 14  1  0
 28 19  1  0
 10 11  1  0
 10 12  1  0
 10 13  1  0
 15 16  1  0
 17 18  1  0
 20 21  1  0
 22 23  1  0
 24 25  1  0
 26 27  1  0
M  END
>  <PDB_ID>  (3) 
pdb1gqv

>  <RESIDUE_NAME>  (3) 
GLN   TRP

>  <FRAG_NAME>  (3) 
ACEM   MIND

>  <FRAG_ATOM_NUM>  (3) 
fragi: 9  fragj: 19

>  <atom.prop.CHAIN_ID>  (3) 
A A A A A A A A A Z Z Z Z Z Z Z Z Z Z Z Z Z Z Z Z Z Z Z

>  <atom.prop.IS_HEAVY_ATOM>  (3) 
1 0 0 0 1 1 0 0 1 1 0 0 0 1 1 0 1 0 1 1 0 1 0 1 0 1 0 1

>  <DIFUSE_FUNC_ATOM>  (3) 
n/a

>  <FINAL_SINGLE_POINT_ENERGY>  (3) 
0

>  <NONCOV_INTER_ENERGY_QM>  (3) 
0

$$$$
